
#======================================================================
# CRYSTAL DATA
#----------------------------------------------------------------------
data_VESTA_phase_1

_chemical_name_common                  'Si O2'
_cell_length_a                         4.971700
_cell_length_b                         4.971700
_cell_length_c                         6.922300
_cell_angle_alpha                      90.000000
_cell_angle_beta                       90.000000
_cell_angle_gamma                      90.000000
_cell_volume                           171.104043
_space_group_name_H-M_alt              'P 41 21 2'
_space_group_IT_number                 92

loop_
_space_group_symop_operation_xyz
   'x, y, z'
   '-x, -y, z+1/2'
   '-y+1/2, x+1/2, z+1/4'
   'y+1/2, -x+1/2, z+3/4'
   '-x+1/2, y+1/2, -z+1/4'
   'x+1/2, -y+1/2, -z+3/4'
   'y, x, -z'
   '-y, -x, -z+1/2'

loop_
   _atom_site_label
   _atom_site_occupancy
   _atom_site_fract_x
   _atom_site_fract_y
   _atom_site_fract_z
   _atom_site_adp_type
   _atom_site_U_iso_or_equiv
   _atom_site_type_symbol
   Si         1.0     0.300280     0.300280     0.000000    Uani  0.009670 Si
   O          1.0     0.239200     0.104400     0.178700    Uani  0.018790 O

loop_
   _atom_site_aniso_label
   _atom_site_aniso_U_11
   _atom_site_aniso_U_22
   _atom_site_aniso_U_33
   _atom_site_aniso_U_12
   _atom_site_aniso_U_13
   _atom_site_aniso_U_23
   Si	 0.00964  0.00964  0.00973 -0.00038  0.00139 -0.00139
   O	 0.03055  0.01077  0.01505 -0.00163  0.00471  0.00087
