
#======================================================================
# CRYSTAL DATA
#----------------------------------------------------------------------
data_VESTA_phase_1

_chemical_name_common                  'Si O2'
_cell_length_a                         5.013000
_cell_length_b                         5.013000
_cell_length_c                         5.470000
_cell_angle_alpha                      90.000000
_cell_angle_beta                       90.000000
_cell_angle_gamma                      120.000000
_cell_volume                           119.045601
_space_group_name_H-M_alt              'P 62 2 2'
_space_group_IT_number                 180

loop_
_space_group_symop_operation_xyz
   'x, y, z'
   '-y, x-y, z+2/3'
   '-x+y, -x, z+1/3'
   '-x, -y, z'
   'y, -x+y, z+2/3'
   'x-y, x, z+1/3'
   'y, x, -z+2/3'
   'x-y, -y, -z'
   '-x, -x+y, -z+1/3'
   '-y, -x, -z+2/3'
   '-x+y, y, -z'
   'x, x-y, -z+1/3'

loop_
   _atom_site_label
   _atom_site_occupancy
   _atom_site_fract_x
   _atom_site_fract_y
   _atom_site_fract_z
   _atom_site_adp_type
   _atom_site_U_iso_or_equiv
   _atom_site_type_symbol
   Si1        1.0     0.500000     0.500000     0.333333    Uiso  ? Si
   O1         1.0     0.197000    -0.197000     0.833333    Uiso  ? O
