
#======================================================================
# CRYSTAL DATA
#----------------------------------------------------------------------
data_VESTA_phase_1

_chemical_name_common                  'Si C'
_cell_length_a                         3.081000
_cell_length_b                         3.081000
_cell_length_c                         15.124800
_cell_angle_alpha                      90.000000
_cell_angle_beta                       90.000000
_cell_angle_gamma                      120.000000
_cell_volume                           124.337945
_space_group_name_H-M_alt              'P 63 m c'
_space_group_IT_number                 186

loop_
_space_group_symop_operation_xyz
   'x, y, z'
   '-y, x-y, z'
   '-x+y, -x, z'
   '-x, -y, z+1/2'
   'y, -x+y, z+1/2'
   'x-y, x, z+1/2'
   '-y, -x, z'
   '-x+y, y, z'
   'x, x-y, z'
   'y, x, z+1/2'
   'x-y, -y, z+1/2'
   '-x, -x+y, z+1/2'

loop_
   _atom_site_label
   _atom_site_occupancy
   _atom_site_fract_x
   _atom_site_fract_y
   _atom_site_fract_z
   _atom_site_adp_type
   _atom_site_U_iso_or_equiv
   _atom_site_type_symbol
   Si1        1.0     0.000000     0.000000     0.000000    Uani  0.005222 Si
   Si2        1.0     0.333333     0.666667     0.166667    Uani  0.005222 Si
   Si3        1.0     0.666667     0.333333     0.332900    Uani  0.005556 Si
   C1         1.0     0.333333     0.666667     0.041200    Uani  0.005333 C
   C2         1.0     0.666667     0.333333     0.208000    Uani  0.005222 C
   C3         1.0     0.000000     0.000000     0.374600    Uani  0.004778 C

loop_
   _atom_site_aniso_label
   _atom_site_aniso_U_11
   _atom_site_aniso_U_22
   _atom_site_aniso_U_33
   _atom_site_aniso_U_12
   _atom_site_aniso_U_13
   _atom_site_aniso_U_23
   Si1	 0.00500  0.00500  0.00500  0.00200  0.00000  0.00000
   Si2	 0.00500  0.00500  0.00500  0.00200  0.00000  0.00000
   Si3	 0.00500  0.00500  0.00600  0.00200  0.00000  0.00000
   C1	 0.00600  0.00600  0.00400  0.00300  0.00000  0.00000
   C2	 0.00500  0.00500  0.00500  0.00200  0.00000  0.00000
   C3	 0.00500  0.00500  0.00500  0.00300  0.00000  0.00000
